************************************************
* Microeletronica - UNISC
* Prof. Marco A. B. Hennes
* CMOS 0.18um
* VDD = 3.3V
* Lmin = 180nm
* Wmin = 300nm
************************************************
.include ../processo.txt

.subckt OR a b out
M1 1 a vdd vdd pmos(W=600n L=180n)
M2 y b 1 vdd pmos(W=600n L=180n)
M3 y b 0 0 nmos(W=300n L=180n)
M4 y a 0 0 nmos(W=300n L=180n)
M5 out y vdd vdd pmos(W=300n L=180n)
M6 out y 0 0 nmos(W=300n L=180n)
.ends OR
